2024_89_CemigReconfigurationCases/1_AlimsCemig/NOG03/NOG03CargaBT_Dez.dss
new load.3000196577M1 bus1=RML1051984760.3.0,Phases=1,kv=0.127,kW=1.9984,pf=0.92,Vminpu=0.92,Vmaxpu=1.5,model=8,zipv=[0.5,0,0.5,1,0,0,0],daily=RES2_3,status=variable
new load.3000196585M1 bus1=RML1051984795.2.0,Phases=1,kv=0.127,kW=2.498,pf=0.92,Vminpu=0.92,Vmaxpu=1.5,model=8,zipv=[0.5,0,0.5,1,0,0,0],daily=RES2_3,status=variable
new load.3000196605M1 bus1=RML1051979916.2.3.0,Phases=2,kv=0.22,kW=1.02718,pf=0.92,Vminpu=0.92,Vmaxpu=1.5,model=8,zipv=[0.5,0,0.5,1,0,0,0],daily=RES3_4,status=variable
new load.3000196637M1 bus1=RML1051981225.1.2.3.0,Phases=3,kv=0.22,kW=1.85378,pf=0.92,Vminpu=0.92,Vmaxpu=1.5,model=8,zipv=[0.5,0,0.5,1,0,0,0],daily=RES2_3,status=variable
new load.3000196646M1 bus1=RML1051981246.1.0,Phases=1,kv=0.127,kW=0.69716,pf=0.92,Vminpu=0.92,Vmaxpu=1.5,model=8,zipv=[0.5,0,0.5,1,0,0,0],daily=RES1_2,status=variable
new load.3000196654M1 bus1=RML1051979986.1.2.3.0,Phases=3,kv=0.22,kW=0.92544,pf=0.92,Vminpu=0.92,Vmaxpu=1.5,model=8,zipv=[0.5,0,0.5,1,0,0,0],daily=COM1_5,status=variable
new load.3000196674M1 bus1=RML1051981351.1.2.3.0,Phases=3,kv=0.22,kW=2.59312,pf=0.92,Vminpu=0.92,Vmaxpu=1.5,model=8,zipv=[0.5,0,0.5,1,0,0,0],daily=RES6_6,status=variable
new load.3000196696M1 bus1=RML1051979986.1.2.3.0,Phases=3,kv=0.22,kW=0.75608,pf=0.92,Vminpu=0.92,Vmaxpu=1.5,model=8,zipv=[0.5,0,0.5,1,0,0,0],daily=RES1_2,status=variable
new load.3000196717M1 bus1=RML1051987497.1.2.3.0,Phases=3,kv=0.22,kW=0.61862,pf=0.92,Vminpu=0.92,Vmaxpu=1.5,model=8,zipv=[0.5,0,0.5,1,0,0,0],daily=RES1_2,status=variable
new load.3000196725M1 bus1=RML1056475197.1.2.3.0,Phases=3,kv=0.22,kW=0.06874,pf=0.92,Vminpu=0.92,Vmaxpu=1.5,model=8,zipv=[0.5,0,0.5,1,0,0,0],daily=RES1_2,status=variable
new load.3000196735M1 bus1=RML1051980007.2.0,Phases=1,kv=0.127,kW=1.71958,pf=0.92,Vminpu=0.92,Vmaxpu=1.5,model=8,zipv=[0.5,0,0.5,1,0,0,0],daily=COM2_4,status=variable
new load.3000196749M1 bus1=RML1051978677.1.2.3.0,Phases=3,kv=0.22,kW=0.47318,pf=0.92,Vminpu=0.92,Vmaxpu=1.5,model=8,zipv=[0.5,0,0.5,1,0,0,0],daily=COM1_5,status=variable
new load.3000196772M1 bus1=RML1051982338.3.0,Phases=1,kv=0.127,kW=2.25448,pf=0.92,Vminpu=0.92,Vmaxpu=1.5,model=8,zipv=[0.5,0,0.5,1,0,0,0],daily=COM2_4,status=variable
new load.3000196780M1 bus1=RML1051979363.1.2.0,Phases=2,kv=0.22,kW=1.81374,pf=0.92,Vminpu=0.92,Vmaxpu=1.5,model=8,zipv=[0.5,0,0.5,1,0,0,0],daily=RES6_6,status=variable
new load.3000196788M1 bus1=RML1051979391.1.2.3.0,Phases=3,kv=0.22,kW=1.61128,pf=0.92,Vminpu=0.92,Vmaxpu=1.5,model=8,zipv=[0.5,0,0.5,1,0,0,0],daily=COM2_4,status=variable
new load.3000196798M1 bus1=RML1051979405.1.2.3.0,Phases=3,kv=0.22,kW=0.75812,pf=0.92,Vminpu=0.92,Vmaxpu=1.5,model=8,zipv=[0.5,0,0.5,1,0,0,0],daily=COM1_5,status=variable
new load.3000196807M1 bus1=RML1051979461.1.2.3.0,Phases=3,kv=0.22,kW=0.82828,pf=0.92,Vminpu=0.92,Vmaxpu=1.5,model=8,zipv=[0.5,0,0.5,1,0,0,0],daily=RES2_3,status=variable
new load.3000196815M1 bus1=RML1051983689.1.2.3.0,Phases=3,kv=0.22,kW=0.32154,pf=0.92,Vminpu=0.92,Vmaxpu=1.5,model=8,zipv=[0.5,0,0.5,1,0,0,0],daily=COM1_5,status=variable
new load.3000196842M1 bus1=RML1057738725.1.2.3.0,Phases=3,kv=0.22,kW=0.14728,pf=0.92,Vminpu=0.92,Vmaxpu=1.5,model=8,zipv=[0.5,0,0.5,1,0,0,0],daily=RES1_2,status=variable
new load.3000196578M1 bus1=RML1051984753.2.0,Phases=1,kv=0.127,kW=1.19642,pf=0.92,Vminpu=0.92,Vmaxpu=1.5,model=8,zipv=[0.5,0,0.5,1,0,0,0],daily=RES2_3,status=variable
new load.3000196606M1 bus1=RML1051979930.1.0,Phases=1,kv=0.127,kW=2.0247,pf=0.92,Vminpu=0.92,Vmaxpu=1.5,model=8,zipv=[0.5,0,0.5,1,0,0,0],daily=RES2_3,status=variable
new load.3000196625M1 bus1=RML1051981274.1.2.3.0,Phases=3,kv=0.22,kW=0.5907,pf=0.92,Vminpu=0.92,Vmaxpu=1.5,model=8,zipv=[0.5,0,0.5,1,0,0,0],daily=COM2_4,status=variable
new load.3000196638M1 bus1=RML1051981225.1.2.3.0,Phases=3,kv=0.22,kW=0.68366,pf=0.92,Vminpu=0.92,Vmaxpu=1.5,model=8,zipv=[0.5,0,0.5,1,0,0,0],daily=RES2_3,status=variable
new load.3000196647M1 bus1=RML1051979958.1.2.3.0,Phases=3,kv=0.22,kW=1.5251,pf=0.92,Vminpu=0.92,Vmaxpu=1.5,model=8,zipv=[0.5,0,0.5,1,0,0,0],daily=RES2_3,status=variable
new load.3000196655M1 bus1=RML1051979972.1.2.3.0,Phases=3,kv=0.22,kW=2.37628,pf=0.92,Vminpu=0.92,Vmaxpu=1.5,model=8,zipv=[0.5,0,0.5,1,0,0,0],daily=RES4_5,status=variable
new load.3000196675M1 bus1=RML1051978572.1.2.3.0,Phases=3,kv=0.22,kW=1.74844,pf=0.92,Vminpu=0.92,Vmaxpu=1.5,model=8,zipv=[0.5,0,0.5,1,0,0,0],daily=COM3_3,status=variable
new load.3000196697M1 bus1=RML1051979986.1.2.3.0,Phases=3,kv=0.22,kW=1.89322,pf=0.92,Vminpu=0.92,Vmaxpu=1.5,model=8,zipv=[0.5,0,0.5,1,0,0,0],daily=RES2_3,status=variable
new load.3000196726M1 bus1=RML1056475197.1.2.3.0,Phases=3,kv=0.22,kW=1.35418,pf=0.92,Vminpu=0.92,Vmaxpu=1.5,model=8,zipv=[0.5,0,0.5,1,0,0,0],daily=RES2_3,status=variable
new load.3000196760M1 bus1=RML1051978642.1.0,Phases=1,kv=0.127,kW=0.01308,pf=0.92,Vminpu=0.92,Vmaxpu=1.5,model=8,zipv=[0.5,0,0.5,1,0,0,0],daily=COM1_5,status=variable
new load.3000196781M1 bus1=RML1051979377.1.2.0,Phases=2,kv=0.22,kW=0.99662,pf=0.92,Vminpu=0.92,Vmaxpu=1.5,model=8,zipv=[0.5,0,0.5,1,0,0,0],daily=RES3_4,status=variable
new load.3000196799M1 bus1=RML1051979412.1.2.3.0,Phases=3,kv=0.22,kW=0.2954,pf=0.92,Vminpu=0.92,Vmaxpu=1.5,model=8,zipv=[0.5,0,0.5,1,0,0,0],daily=COM1_5,status=variable
new load.3000196816M1 bus1=RML1051983689.1.2.3.0,Phases=3,kv=0.22,kW=0.17674,pf=0.92,Vminpu=0.92,Vmaxpu=1.5,model=8,zipv=[0.5,0,0.5,1,0,0,0],daily=RES1_2,status=variable
new load.3000196843M1 bus1=RML1057738725.1.2.3.0,Phases=3,kv=0.22,kW=0.75608,pf=0.92,Vminpu=0.92,Vmaxpu=1.5,model=8,zipv=[0.5,0,0.5,1,0,0,0],daily=RES1_2,status=variable
new load.3000196852M1 bus1=RML1057738725.1.2.3.0,Phases=3,kv=0.22,kW=1.7223,pf=0.92,Vminpu=0.92,Vmaxpu=1.5,model=8,zipv=[0.5,0,0.5,1,0,0,0],daily=RES2_3,status=variable
new load.3000196583M1 bus1=RML1051984830.1.0,Phases=1,kv=0.127,kW=0.33386,pf=0.92,Vminpu=0.92,Vmaxpu=1.5,model=8,zipv=[0.5,0,0.5,1,0,0,0],daily=RES1_2,status=variable
new load.3000196594M1 bus1=RML1056475190.1.2.3.0,Phases=3,kv=0.22,kW=1.78804,pf=0.92,Vminpu=0.92,Vmaxpu=1.5,model=8,zipv=[0.5,0,0.5,1,0,0,0],daily=RES2_3,status=variable
new load.3000196618M1 bus1=RML1051987567.1.2.3.0,Phases=3,kv=0.22,kW=2.14302,pf=0.92,Vminpu=0.92,Vmaxpu=1.5,model=8,zipv=[0.5,0,0.5,1,0,0,0],daily=RES2_3,status=variable
new load.3000196631M1 bus1=RML1051981232.1.2.3.0,Phases=3,kv=0.22,kW=2.57312,pf=0.92,Vminpu=0.92,Vmaxpu=1.5,model=8,zipv=[0.5,0,0.5,1,0,0,0],daily=RES4_5,status=variable
new load.3000196643M1 bus1=RML1051981225.1.2.3.0,Phases=3,kv=0.22,kW=0.05892,pf=0.92,Vminpu=0.92,Vmaxpu=1.5,model=8,zipv=[0.5,0,0.5,1,0,0,0],daily=RES1_2,status=variable
new load.3000196652M1 bus1=RML1051979958.1.2.3.0,Phases=3,kv=0.22,kW=0.13746,pf=0.92,Vminpu=0.92,Vmaxpu=1.5,model=8,zipv=[0.5,0,0.5,1,0,0,0],daily=RES1_2,status=variable
new load.3000196671M1 bus1=RML1051981302.1.2.3.0,Phases=3,kv=0.22,kW=0.56468,pf=0.92,Vminpu=0.92,Vmaxpu=1.5,model=8,zipv=[0.5,0,0.5,1,0,0,0],daily=COM1_5,status=variable
new load.3000196685M1 bus1=RML1051978565.1.2.3.0,Phases=3,kv=0.22,kW=0.974,pf=0.92,Vminpu=0.92,Vmaxpu=1.5,model=8,zipv=[0.5,0,0.5,1,0,0,0],daily=IND2_3,status=variable
new load.3000196694M1 bus1=RML1051979993.1.2.3.0,Phases=3,kv=0.22,kW=1.8012,pf=0.92,Vminpu=0.92,Vmaxpu=1.5,model=8,zipv=[0.5,0,0.5,1,0,0,0],daily=RES2_3,status=variable
new load.3000196703M1 bus1=RML1051987497.1.2.3.0,Phases=3,kv=0.22,kW=1.5469,pf=0.92,Vminpu=0.92,Vmaxpu=1.5,model=8,zipv=[0.5,0,0.5,1,0,0,0],daily=RES3_4,status=variable
new load.3000196723M1 bus1=RML1051987497.1.2.3.0,Phases=3,kv=0.22,kW=1.08834,pf=0.92,Vminpu=0.92,Vmaxpu=1.5,model=8,zipv=[0.5,0,0.5,1,0,0,0],daily=RES3_4,status=variable
new load.3000196732M1 bus1=RML1056475197.1.2.3.0,Phases=3,kv=0.22,kW=0.4124,pf=0.92,Vminpu=0.92,Vmaxpu=1.5,model=8,zipv=[0.5,0,0.5,1,0,0,0],daily=RES1_2,status=variable
new load.3000196778M1 bus1=RML1051979328.1.2.3.0,Phases=3,kv=0.22,kW=2.64342,pf=0.92,Vminpu=0.92,Vmaxpu=1.5,model=8,zipv=[0.5,0,0.5,1,0,0,0],daily=RES4_5,status=variable
new load.3000196786M1 bus1=RML1051979391.1.2.3.0,Phases=3,kv=0.22,kW=0.98606,pf=0.92,Vminpu=0.92,Vmaxpu=1.5,model=8,zipv=[0.5,0,0.5,1,0,0,0],daily=RES2_3,status=variable
new load.3000196794M1 bus1=RML1051979447.2.3.0,Phases=2,kv=0.22,kW=0.00982,pf=0.92,Vminpu=0.92,Vmaxpu=1.5,model=8,zipv=[0.5,0,0.5,1,0,0,0],daily=RES1_2,status=variable
new load.3000196805M1 bus1=RML1051979461.1.2.3.0,Phases=3,kv=0.22,kW=1.249,pf=0.92,Vminpu=0.92,Vmaxpu=1.5,model=8,zipv=[0.5,0,0.5,1,0,0,0],daily=RES2_3,status=variable
new load.3000196813M1 bus1=RML1051979524.1.2.0,Phases=2,kv=0.22,kW=1.2753,pf=0.92,Vminpu=0.92,Vmaxpu=1.5,model=8,zipv=[0.5,0,0.5,1,0,0,0],daily=RES2_3,status=variable
new load.3000196821M1 bus1=RML1051983689.1.2.3.0,Phases=3,kv=0.22,kW=0.00982,pf=0.92,Vminpu=0.92,Vmaxpu=1.5,model=8,zipv=[0.5,0,0.5,1,0,0,0],daily=RES1_2,status=variable
new load.3000196840M1 bus1=RML1057738725.1.2.3.0,Phases=3,kv=0.22,kW=0.67754,pf=0.92,Vminpu=0.92,Vmaxpu=1.5,model=8,zipv=[0.5,0,0.5,1,0,0,0],daily=RES1_2,status=variable
new load.3000196571M1 bus1=RML1051984718.1.2.3.0,Phases=3,kv=0.22,kW=1.98146,pf=0.92,Vminpu=0.92,Vmaxpu=1.5,model=8,zipv=[0.5,0,0.5,1,0,0,0],daily=COM3_3,status=variable
new load.3000196579M1 bus1=RML1051984774.1.3.0,Phases=2,kv=0.22,kW=2.34024,pf=0.92,Vminpu=0.92,Vmaxpu=1.5,model=8,zipv=[0.5,0,0.5,1,0,0,0],daily=RES2_3,status=variable
new load.3000196589M1 bus1=RML1051979741.1.2.3.0,Phases=3,kv=0.22,kW=3.1918,pf=0.92,Vminpu=0.92,Vmaxpu=1.5,model=8,zipv=[0.5,0,0.5,1,0,0,0],daily=RES4_5,status=variable
new load.3000196599M1 bus1=RML1051979874.3.0,Phases=1,kv=0.127,kW=1.30844,pf=0.92,Vminpu=0.92,Vmaxpu=1.5,model=8,zipv=[0.5,0,0.5,1,0,0,0],daily=RES3_4,status=variable
new load.3000196627M1 bus1=RML1051981267.1.2.3.0,Phases=3,kv=0.22,kW=0.53854,pf=0.92,Vminpu=0.92,Vmaxpu=1.5,model=8,zipv=[0.5,0,0.5,1,0,0,0],daily=COM1_5,status=variable
new load.3000196639M1 bus1=RML1051981225.1.2.3.0,Phases=3,kv=0.22,kW=0.86772,pf=0.92,Vminpu=0.92,Vmaxpu=1.5,model=8,zipv=[0.5,0,0.5,1,0,0,0],daily=RES2_3,status=variable
new load.3000196656M1 bus1=RML1051979965.1.2.0,Phases=2,kv=0.22,kW=1.05164,pf=0.92,Vminpu=0.92,Vmaxpu=1.5,model=8,zipv=[0.5,0,0.5,1,0,0,0],daily=RES3_4,status=variable
new load.3000196676M1 bus1=RML1051978579.1.2.3.0,Phases=3,kv=0.22,kW=2.09044,pf=0.92,Vminpu=0.92,Vmaxpu=1.5,model=8,zipv=[0.5,0,0.5,1,0,0,0],daily=RES2_3,status=variable
new load.3000196698M1 bus1=RML1051979986.1.2.3.0,Phases=3,kv=0.22,kW=1.93266,pf=0.92,Vminpu=0.92,Vmaxpu=1.5,model=8,zipv=[0.5,0,0.5,1,0,0,0],daily=RES2_3,status=variable
new load.3000196707M1 bus1=RML1051987497.1.2.3.0,Phases=3,kv=0.22,kW=1.59084,pf=0.92,Vminpu=0.92,Vmaxpu=1.5,model=8,zipv=[0.5,0,0.5,1,0,0,0],daily=RES2_3,status=variable
new load.3000196719M1 bus1=RML1051987497.1.2.3.0,Phases=3,kv=0.22,kW=2.11674,pf=0.92,Vminpu=0.92,Vmaxpu=1.5,model=8,zipv=[0.5,0,0.5,1,0,0,0],daily=RES2_3,status=variable
new load.3000196728M1 bus1=RML1056475197.1.2.3.0,Phases=3,kv=0.22,kW=0.54114,pf=0.92,Vminpu=0.92,Vmaxpu=1.5,model=8,zipv=[0.5,0,0.5,1,0,0,0],daily=COM1_5,status=variable
new load.3000196737M1 bus1=RML1051980000.1.2.3.0,Phases=3,kv=0.22,kW=0.0549,pf=0.92,Vminpu=0.92,Vmaxpu=1.5,model=8,zipv=[0.5,0,0.5,1,0,0,0],daily=COM1_5,status=variable
new load.3000196774M1 bus1=RML1051982324.1.0,Phases=1,kv=0.127,kW=15.66822,pf=0.92,Vminpu=0.92,Vmaxpu=1.5,model=8,zipv=[0.5,0,0.5,1,0,0,0],daily=COM4_4,status=variable
new load.3000196782M1 bus1=RML1051979391.1.2.3.0,Phases=3,kv=0.22,kW=0.2062,pf=0.92,Vminpu=0.92,Vmaxpu=1.5,model=8,zipv=[0.5,0,0.5,1,0,0,0],daily=RES1_2,status=variable
new load.3000196790M1 bus1=RML1052020831.1.2.3.0,Phases=3,kv=0.22,kW=0.98556,pf=0.92,Vminpu=0.92,Vmaxpu=1.5,model=8,zipv=[0.5,0,0.5,1,0,0,0],daily=COM1_5,status=variable
new load.3000196800M1 bus1=RML1051979426.1.2.3.0,Phases=3,kv=0.22,kW=0.8204,pf=0.92,Vminpu=0.92,Vmaxpu=1.5,model=8,zipv=[0.5,0,0.5,1,0,0,0],daily=COM2_4,status=variable
new load.3000196809M1 bus1=RML1051979461.1.2.3.0,Phases=3,kv=0.22,kW=1.61416,pf=0.92,Vminpu=0.92,Vmaxpu=1.5,model=8,zipv=[0.5,0,0.5,1,0,0,0],daily=RES3_4,status=variable
new load.3000196817M1 bus1=RML1051983689.1.2.3.0,Phases=3,kv=0.22,kW=0.06796,pf=0.92,Vminpu=0.92,Vmaxpu=1.5,model=8,zipv=[0.5,0,0.5,1,0,0,0],daily=COM1_5,status=variable
new load.3000196825M1 bus1=RML1051983689.1.2.3.0,Phases=3,kv=0.22,kW=0.54006,pf=0.92,Vminpu=0.92,Vmaxpu=1.5,model=8,zipv=[0.5,0,0.5,1,0,0,0],daily=RES1_2,status=variable
new load.3000196836M1 bus1=RML1051983276.3.0,Phases=1,kv=0.127,kW=1.35124,pf=0.92,Vminpu=0.92,Vmaxpu=1.5,model=8,zipv=[0.5,0,0.5,1,0,0,0],daily=RES3_4,status=variable
new load.3000196844M1 bus1=RML1057738725.1.2.3.0,Phases=3,kv=0.22,kW=0.06874,pf=0.92,Vminpu=0.92,Vmaxpu=1.5,model=8,zipv=[0.5,0,0.5,1,0,0,0],daily=RES1_2,status=variable
new load.3000196572M1 bus1=RML1051984725.3.0,Phases=1,kv=0.127,kW=0.02946,pf=0.92,Vminpu=0.92,Vmaxpu=1.5,model=8,zipv=[0.5,0,0.5,1,0,0,0],daily=RES1_2,status=variable
new load.3000196580M1 bus1=RML1051984767.2.0,Phases=1,kv=0.127,kW=1.04584,pf=0.92,Vminpu=0.92,Vmaxpu=1.5,model=8,zipv=[0.5,0,0.5,1,0,0,0],daily=RUR2_5,status=variable
new load.3000196590M1 bus1=RML1051979783.1.2.3.0,Phases=3,kv=0.22,kW=1.67446,pf=0.92,Vminpu=0.92,Vmaxpu=1.5,model=8,zipv=[0.5,0,0.5,1,0,0,0],daily=RES5_5,status=variable
new load.3000196600M1 bus1=RML1051979797.2.3.0,Phases=2,kv=0.22,kW=0.46928,pf=0.92,Vminpu=0.92,Vmaxpu=1.5,model=8,zipv=[0.5,0,0.5,1,0,0,0],daily=COM2_4,status=variable
new load.3000196608M1 bus1=RML1051979944.3.0,Phases=1,kv=0.127,kW=0.64808,pf=0.92,Vminpu=0.92,Vmaxpu=1.5,model=8,zipv=[0.5,0,0.5,1,0,0,0],daily=RES1_2,status=variable
new load.3000196628M1 bus1=RML1051981232.1.2.3.0,Phases=3,kv=0.22,kW=1.93266,pf=0.92,Vminpu=0.92,Vmaxpu=1.5,model=8,zipv=[0.5,0,0.5,1,0,0,0],daily=RES2_3,status=variable
new load.3000196640M1 bus1=RML1051981225.1.2.3.0,Phases=3,kv=0.22,kW=2.10358,pf=0.92,Vminpu=0.92,Vmaxpu=1.5,model=8,zipv=[0.5,0,0.5,1,0,0,0],daily=RES2_3,status=variable
new load.3000196649M1 bus1=RML1051979958.1.2.3.0,Phases=3,kv=0.22,kW=0.48114,pf=0.92,Vminpu=0.92,Vmaxpu=1.5,model=8,zipv=[0.5,0,0.5,1,0,0,0],daily=RES1_2,status=variable
new load.3000196690M1 bus1=RML1051978509.1.2.3.0,Phases=3,kv=0.22,kW=0.14116,pf=0.92,Vminpu=0.92,Vmaxpu=1.5,model=8,zipv=[0.5,0,0.5,1,0,0,0],daily=COM1_5,status=variable
new load.3000196708M1 bus1=RML1051987497.1.2.3.0,Phases=3,kv=0.22,kW=1.98258,pf=0.92,Vminpu=0.92,Vmaxpu=1.5,model=8,zipv=[0.5,0,0.5,1,0,0,0],daily=RES4_5,status=variable
new load.3000196720M1 bus1=RML1051987497.1.2.3.0,Phases=3,kv=0.22,kW=0.44186,pf=0.92,Vminpu=0.92,Vmaxpu=1.5,model=8,zipv=[0.5,0,0.5,1,0,0,0],daily=RES1_2,status=variable
new load.3000196729M1 bus1=RML1056475197.1.2.3.0,Phases=3,kv=0.22,kW=0.32404,pf=0.92,Vminpu=0.92,Vmaxpu=1.5,model=8,zipv=[0.5,0,0.5,1,0,0,0],daily=RES1_2,status=variable
new load.3000196744M1 bus1=RML1051980014.1.2.3.0,Phases=3,kv=0.22,kW=2.22824,pf=0.92,Vminpu=0.92,Vmaxpu=1.5,model=8,zipv=[0.5,0,0.5,1,0,0,0],daily=COM2_4,status=variable
new load.3000196764M1 bus1=RML1051978495.1.0,Phases=1,kv=0.127,kW=1.2227,pf=0.92,Vminpu=0.92,Vmaxpu=1.5,model=8,zipv=[0.5,0,0.5,1,0,0,0],daily=RES2_3,status=variable
new load.3000196775M1 bus1=RML1051979300.1.0,Phases=1,kv=0.127,kW=1.70916,pf=0.92,Vminpu=0.92,Vmaxpu=1.5,model=8,zipv=[0.5,0,0.5,1,0,0,0],daily=RES2_3,status=variable
new load.3000196783M1 bus1=RML1051979391.1.2.3.0,Phases=3,kv=0.22,kW=0.53024,pf=0.92,Vminpu=0.92,Vmaxpu=1.5,model=8,zipv=[0.5,0,0.5,1,0,0,0],daily=RES1_2,status=variable
new load.3000196791M1 bus1=RML1051979447.2.3.0,Phases=2,kv=0.22,kW=0.0915,pf=0.92,Vminpu=0.92,Vmaxpu=1.5,model=8,zipv=[0.5,0,0.5,1,0,0,0],daily=COM1_5,status=variable
new load.3000196801M1 bus1=RML1051979461.1.2.3.0,Phases=3,kv=0.22,kW=0.81564,pf=0.92,Vminpu=0.92,Vmaxpu=1.5,model=8,zipv=[0.5,0,0.5,1,0,0,0],daily=COM1_5,status=variable
new load.3000196810M1 bus1=RML1051979461.1.2.3.0,Phases=3,kv=0.22,kW=1.91952,pf=0.92,Vminpu=0.92,Vmaxpu=1.5,model=8,zipv=[0.5,0,0.5,1,0,0,0],daily=RES2_3,status=variable
new load.3000196818M1 bus1=RML1051983689.1.2.3.0,Phases=3,kv=0.22,kW=0.69682,pf=0.92,Vminpu=0.92,Vmaxpu=1.5,model=8,zipv=[0.5,0,0.5,1,0,0,0],daily=RES2_3,status=variable
new load.3000196826M1 bus1=RML1051983689.1.2.3.0,Phases=3,kv=0.22,kW=0.3044,pf=0.92,Vminpu=0.92,Vmaxpu=1.5,model=8,zipv=[0.5,0,0.5,1,0,0,0],daily=RES1_2,status=variable
new load.3000196837M1 bus1=RML1057738725.1.2.3.0,Phases=3,kv=0.22,kW=0.01964,pf=0.92,Vminpu=0.92,Vmaxpu=1.5,model=8,zipv=[0.5,0,0.5,1,0,0,0],daily=RES1_2,status=variable
new load.3000196845M1 bus1=RML1057738725.1.2.3.0,Phases=3,kv=0.22,kW=1.69602,pf=0.92,Vminpu=0.92,Vmaxpu=1.5,model=8,zipv=[0.5,0,0.5,1,0,0,0],daily=RES2_3,status=variable
new load.3000196573M1 bus1=RML1051984725.3.0,Phases=1,kv=0.127,kW=1.00884,pf=0.92,Vminpu=0.92,Vmaxpu=1.5,model=8,zipv=[0.5,0,0.5,1,0,0,0],daily=RES3_4,status=variable
new load.3000196581M1 bus1=RML1051984781.1.2.0,Phases=2,kv=0.22,kW=0.7382,pf=0.92,Vminpu=0.92,Vmaxpu=1.5,model=8,zipv=[0.5,0,0.5,1,0,0,0],daily=RES4_5,status=variable
new load.3000196601M1 bus1=RML1051979853.3.0,Phases=1,kv=0.127,kW=0.7757,pf=0.92,Vminpu=0.92,Vmaxpu=1.5,model=8,zipv=[0.5,0,0.5,1,0,0,0],daily=RES2_3,status=variable
new load.3000196629M1 bus1=RML1051981232.1.2.3.0,Phases=3,kv=0.22,kW=1.39362,pf=0.92,Vminpu=0.92,Vmaxpu=1.5,model=8,zipv=[0.5,0,0.5,1,0,0,0],daily=RES2_3,status=variable
new load.3000196641M1 bus1=RML1051981225.1.2.3.0,Phases=3,kv=0.22,kW=1.49798,pf=0.92,Vminpu=0.92,Vmaxpu=1.5,model=8,zipv=[0.5,0,0.5,1,0,0,0],daily=RES3_4,status=variable
new load.3000196650M1 bus1=RML1051979958.1.2.3.0,Phases=3,kv=0.22,kW=2.2219,pf=0.92,Vminpu=0.92,Vmaxpu=1.5,model=8,zipv=[0.5,0,0.5,1,0,0,0],daily=RES2_3,status=variable
new load.3000196659M1 bus1=RML1051981260.1.2.3.0,Phases=3,kv=0.22,kW=0.0915,pf=0.92,Vminpu=0.92,Vmaxpu=1.5,model=8,zipv=[0.5,0,0.5,1,0,0,0],daily=COM1_5,status=variable
new load.3000196678M1 bus1=RML1051978593.1.2.3.0,Phases=3,kv=0.22,kW=0.23266,pf=0.92,Vminpu=0.92,Vmaxpu=1.5,model=8,zipv=[0.5,0,0.5,1,0,0,0],daily=COM1_5,status=variable
new load.3000196691M1 bus1=RML1051978502.1.2.3.0,Phases=3,kv=0.22,kW=0.08366,pf=0.92,Vminpu=0.92,Vmaxpu=1.5,model=8,zipv=[0.5,0,0.5,1,0,0,0],daily=COM1_5,status=variable
new load.3000196701M1 bus1=RML1051987497.1.2.3.0,Phases=3,kv=0.22,kW=2.26136,pf=0.92,Vminpu=0.92,Vmaxpu=1.5,model=8,zipv=[0.5,0,0.5,1,0,0,0],daily=RES2_3,status=variable
new load.3000196710M1 bus1=RML1051987497.1.2.3.0,Phases=3,kv=0.22,kW=2.05438,pf=0.92,Vminpu=0.92,Vmaxpu=1.5,model=8,zipv=[0.5,0,0.5,1,0,0,0],daily=RES3_4,status=variable
new load.3000196721M1 bus1=RML1051987497.1.2.3.0,Phases=3,kv=0.22,kW=1.9984,pf=0.92,Vminpu=0.92,Vmaxpu=1.5,model=8,zipv=[0.5,0,0.5,1,0,0,0],daily=RES2_3,status=variable
new load.3000196730M1 bus1=RML1056475197.1.2.3.0,Phases=3,kv=0.22,kW=1.9721,pf=0.92,Vminpu=0.92,Vmaxpu=1.5,model=8,zipv=[0.5,0,0.5,1,0,0,0],daily=RES2_3,status=variable
new load.3000196745M1 bus1=RML1051978698.3.0,Phases=1,kv=0.127,kW=2.23122,pf=0.92,Vminpu=0.92,Vmaxpu=1.5,model=8,zipv=[0.5,0,0.5,1,0,0,0],daily=COM3_3,status=variable
new load.3000196766M1 bus1=RML1056475211.1.2.0,Phases=2,kv=0.22,kW=0.43918,pf=0.92,Vminpu=0.92,Vmaxpu=1.5,model=8,zipv=[0.5,0,0.5,1,0,0,0],daily=COM1_5,status=variable
new load.3000196776M1 bus1=RML1051979300.1.0,Phases=1,kv=0.127,kW=0.10718,pf=0.92,Vminpu=0.92,Vmaxpu=1.5,model=8,zipv=[0.5,0,0.5,1,0,0,0],daily=COM1_5,status=variable
new load.3000196784M1 bus1=RML1051979391.1.2.3.0,Phases=3,kv=0.22,kW=1.18326,pf=0.92,Vminpu=0.92,Vmaxpu=1.5,model=8,zipv=[0.5,0,0.5,1,0,0,0],daily=RES2_3,status=variable
new load.3000196802M1 bus1=RML1051979461.1.2.3.0,Phases=3,kv=0.22,kW=0.21602,pf=0.92,Vminpu=0.92,Vmaxpu=1.5,model=8,zipv=[0.5,0,0.5,1,0,0,0],daily=RES1_2,status=variable
new load.3000196811M1 bus1=RML1051979510.1.0,Phases=1,kv=0.127,kW=0.66772,pf=0.92,Vminpu=0.92,Vmaxpu=1.5,model=8,zipv=[0.5,0,0.5,1,0,0,0],daily=RES1_2,status=variable
new load.3000196838M1 bus1=RML1057738725.1.2.3.0,Phases=3,kv=0.22,kW=0.79536,pf=0.92,Vminpu=0.92,Vmaxpu=1.5,model=8,zipv=[0.5,0,0.5,1,0,0,0],daily=RES1_2,status=variable
new load.3000196582M1 bus1=RML1051984788.1.0,Phases=1,kv=0.127,kW=3.26156,pf=0.92,Vminpu=0.92,Vmaxpu=1.5,model=8,zipv=[0.5,0,0.5,1,0,0,0],daily=RES5_5,status=variable
new load.3000196593M1 bus1=RML1051979818.1.2.0,Phases=2,kv=0.22,kW=2.14548,pf=0.92,Vminpu=0.92,Vmaxpu=1.5,model=8,zipv=[0.5,0,0.5,1,0,0,0],daily=COM3_3,status=variable
new load.3000196617M1 bus1=RML1051987490.1.2.3.0,Phases=3,kv=0.22,kW=2.3468,pf=0.92,Vminpu=0.92,Vmaxpu=1.5,model=8,zipv=[0.5,0,0.5,1,0,0,0],daily=COM3_3,status=variable
new load.3000196642M1 bus1=RML1051981225.1.2.3.0,Phases=3,kv=0.22,kW=1.95896,pf=0.92,Vminpu=0.92,Vmaxpu=1.5,model=8,zipv=[0.5,0,0.5,1,0,0,0],daily=RES2_3,status=variable
new load.3000196651M1 bus1=RML1051979958.1.2.3.0,Phases=3,kv=0.22,kW=1.15698,pf=0.92,Vminpu=0.92,Vmaxpu=1.5,model=8,zipv=[0.5,0,0.5,1,0,0,0],daily=RES2_3,status=variable
new load.3000196693M1 bus1=RML1051979993.1.2.3.0,Phases=3,kv=0.22,kW=0.00982,pf=0.92,Vminpu=0.92,Vmaxpu=1.5,model=8,zipv=[0.5,0,0.5,1,0,0,0],daily=RES1_2,status=variable
new load.3000196702M1 bus1=RML1051987497.1.2.3.0,Phases=3,kv=0.22,kW=2.10358,pf=0.92,Vminpu=0.92,Vmaxpu=1.5,model=8,zipv=[0.5,0,0.5,1,0,0,0],daily=RES2_3,status=variable
new load.3000196711M1 bus1=RML1051987497.1.2.3.0,Phases=3,kv=0.22,kW=1.42462,pf=0.92,Vminpu=0.92,Vmaxpu=1.5,model=8,zipv=[0.5,0,0.5,1,0,0,0],daily=RES3_4,status=variable
new load.3000196722M1 bus1=RML1051987532.1.2.0,Phases=2,kv=0.22,kW=0.35292,pf=0.92,Vminpu=0.92,Vmaxpu=1.5,model=8,zipv=[0.5,0,0.5,1,0,0,0],daily=COM1_5,status=variable
new load.3000196731M1 bus1=RML1056475197.1.2.3.0,Phases=3,kv=0.22,kW=1.8012,pf=0.92,Vminpu=0.92,Vmaxpu=1.5,model=8,zipv=[0.5,0,0.5,1,0,0,0],daily=RES2_3,status=variable
new load.3000196746M1 bus1=RML1051978698.3.0,Phases=1,kv=0.127,kW=0.29018,pf=0.92,Vminpu=0.92,Vmaxpu=1.5,model=8,zipv=[0.5,0,0.5,1,0,0,0],daily=COM1_5,status=variable
new load.3000196777M1 bus1=RML1051979314.1.2.0,Phases=2,kv=0.22,kW=1.10844,pf=0.92,Vminpu=0.92,Vmaxpu=1.5,model=8,zipv=[0.5,0,0.5,1,0,0,0],daily=COM1_5,status=variable
new load.3000196785M1 bus1=RML1051979391.1.2.3.0,Phases=3,kv=0.22,kW=1.73546,pf=0.92,Vminpu=0.92,Vmaxpu=1.5,model=8,zipv=[0.5,0,0.5,1,0,0,0],daily=RES2_3,status=variable
new load.3000196803M1 bus1=RML1051979461.1.2.3.0,Phases=3,kv=0.22,kW=0.35554,pf=0.92,Vminpu=0.92,Vmaxpu=1.5,model=8,zipv=[0.5,0,0.5,1,0,0,0],daily=COM1_5,status=variable
new load.3000196828M1 bus1=RML1051983689.1.2.3.0,Phases=3,kv=0.22,kW=1.51196,pf=0.92,Vminpu=0.92,Vmaxpu=1.5,model=8,zipv=[0.5,0,0.5,1,0,0,0],daily=RES2_3,status=variable
new load.3000196576M1 bus1=RML1051984739.2.0,Phases=1,kv=0.127,kW=1.89322,pf=0.92,Vminpu=0.92,Vmaxpu=1.5,model=8,zipv=[0.5,0,0.5,1,0,0,0],daily=RES2_3,status=variable
new load.3000196584M1 bus1=RML1051984816.3.0,Phases=1,kv=0.127,kW=0.05892,pf=0.92,Vminpu=0.92,Vmaxpu=1.5,model=8,zipv=[0.5,0,0.5,1,0,0,0],daily=RES1_2,status=variable
new load.3000196595M1 bus1=RML1056475190.1.2.3.0,Phases=3,kv=0.22,kW=0.69716,pf=0.92,Vminpu=0.92,Vmaxpu=1.5,model=8,zipv=[0.5,0,0.5,1,0,0,0],daily=RES1_2,status=variable
new load.3000196604M1 bus1=RML1051979888.3.0,Phases=1,kv=0.127,kW=1.28844,pf=0.92,Vminpu=0.92,Vmaxpu=1.5,model=8,zipv=[0.5,0,0.5,1,0,0,0],daily=RES2_3,status=variable
new load.3000196619M1 bus1=RML1051987560.1.2.3.0,Phases=3,kv=0.22,kW=2.01156,pf=0.92,Vminpu=0.92,Vmaxpu=1.5,model=8,zipv=[0.5,0,0.5,1,0,0,0],daily=RES2_3,status=variable
new load.3000196632M1 bus1=RML1051981232.1.2.3.0,Phases=3,kv=0.22,kW=0.0982,pf=0.92,Vminpu=0.92,Vmaxpu=1.5,model=8,zipv=[0.5,0,0.5,1,0,0,0],daily=RES1_2,status=variable
new load.3000196645M1 bus1=RML1051981246.1.0,Phases=1,kv=0.127,kW=0.7168,pf=0.92,Vminpu=0.92,Vmaxpu=1.5,model=8,zipv=[0.5,0,0.5,1,0,0,0],daily=RES1_2,status=variable
new load.3000196653M1 bus1=RML1051979979.1.2.3.0,Phases=3,kv=0.22,kW=2.59178,pf=0.92,Vminpu=0.92,Vmaxpu=1.5,model=8,zipv=[0.5,0,0.5,1,0,0,0],daily=RES5_5,status=variable
new load.3000196672M1 bus1=RML1051981295.1.2.3.0,Phases=3,kv=0.22,kW=0.21436,pf=0.92,Vminpu=0.92,Vmaxpu=1.5,model=8,zipv=[0.5,0,0.5,1,0,0,0],daily=COM1_5,status=variable
new load.3000196695M1 bus1=RML1051979993.1.2.3.0,Phases=3,kv=0.22,kW=1.76176,pf=0.92,Vminpu=0.92,Vmaxpu=1.5,model=8,zipv=[0.5,0,0.5,1,0,0,0],daily=RES2_3,status=variable
new load.3000196716M1 bus1=RML1051987497.1.2.3.0,Phases=3,kv=0.22,kW=1.22284,pf=0.92,Vminpu=0.92,Vmaxpu=1.5,model=8,zipv=[0.5,0,0.5,1,0,0,0],daily=RES3_4,status=variable
new load.3000196724M1 bus1=RML1051987497.1.2.3.0,Phases=3,kv=0.22,kW=1.36732,pf=0.92,Vminpu=0.92,Vmaxpu=1.5,model=8,zipv=[0.5,0,0.5,1,0,0,0],daily=RES2_3,status=variable
new load.3000196748M1 bus1=RML1051978677.1.2.3.0,Phases=3,kv=0.22,kW=2.47764,pf=0.92,Vminpu=0.92,Vmaxpu=1.5,model=8,zipv=[0.5,0,0.5,1,0,0,0],daily=COM2_4,status=variable
new load.3000196756M1 bus1=RML1051978754.1.2.3.0,Phases=3,kv=0.22,kW=13.11014,pf=0.92,Vminpu=0.92,Vmaxpu=1.5,model=8,zipv=[0.5,0,0.5,1,0,0,0],daily=COM4_4,status=variable
new load.3000196779M1 bus1=RML1051979321.2.3.0,Phases=2,kv=0.22,kW=2.3224,pf=0.92,Vminpu=0.92,Vmaxpu=1.5,model=8,zipv=[0.5,0,0.5,1,0,0,0],daily=RES5_5,status=variable
new load.3000196787M1 bus1=RML1051979391.1.2.3.0,Phases=3,kv=0.22,kW=2.23506,pf=0.92,Vminpu=0.92,Vmaxpu=1.5,model=8,zipv=[0.5,0,0.5,1,0,0,0],daily=RES2_3,status=variable
new load.3000196797M1 bus1=RML1051979398.1.2.3.0,Phases=3,kv=0.22,kW=0.14378,pf=0.92,Vminpu=0.92,Vmaxpu=1.5,model=8,zipv=[0.5,0,0.5,1,0,0,0],daily=COM1_5,status=variable
new load.3000196806M1 bus1=RML1051979461.1.2.3.0,Phases=3,kv=0.22,kW=2.76096,pf=0.92,Vminpu=0.92,Vmaxpu=1.5,model=8,zipv=[0.5,0,0.5,1,0,0,0],daily=RES2_3,status=variable
new load.3000196814M1 bus1=RML1051983689.1.2.3.0,Phases=3,kv=0.22,kW=2.33652,pf=0.92,Vminpu=0.92,Vmaxpu=1.5,model=8,zipv=[0.5,0,0.5,1,0,0,0],daily=COM2_4,status=variable
new load.3000196822M1 bus1=RML1051983689.1.2.3.0,Phases=3,kv=0.22,kW=0.4026,pf=0.92,Vminpu=0.92,Vmaxpu=1.5,model=8,zipv=[0.5,0,0.5,1,0,0,0],daily=RES1_2,status=variable
new load.3000196830M1 bus1=RML1051979531.1.2.0,Phases=2,kv=0.22,kW=2.39282,pf=0.92,Vminpu=0.92,Vmaxpu=1.5,model=8,zipv=[0.5,0,0.5,1,0,0,0],daily=RES2_3,status=variable
new load.3000544621M1 bus1=RML1052026179.1.3.0,Phases=2,kv=0.22,kW=2.39612,pf=0.92,Vminpu=0.92,Vmaxpu=1.5,model=8,zipv=[0.5,0,0.5,1,0,0,0],daily=RES4_11,status=variable
new load.3000544629M1 bus1=RML1052028055.1.2.3.0,Phases=3,kv=0.22,kW=1.85962,pf=0.92,Vminpu=0.92,Vmaxpu=1.5,model=8,zipv=[0.5,0,0.5,1,0,0,0],daily=RES3_10,status=variable
new load.3000544648M1 bus1=RML1051983346.1.2.3.0,Phases=3,kv=0.22,kW=0.8124,pf=0.92,Vminpu=0.92,Vmaxpu=1.5,model=8,zipv=[0.5,0,0.5,1,0,0,0],daily=RES2_9,status=variable
new load.3000544677M1 bus1=RML1051979517.1.0,Phases=1,kv=0.127,kW=0.24074,pf=0.92,Vminpu=0.92,Vmaxpu=1.5,model=8,zipv=[0.5,0,0.5,1,0,0,0],daily=COM1_13,status=variable
new load.3000544688M1 bus1=RML1051979419.1.2.3.0,Phases=3,kv=0.22,kW=1.63192,pf=0.92,Vminpu=0.92,Vmaxpu=1.5,model=8,zipv=[0.5,0,0.5,1,0,0,0],daily=RES3_10,status=variable
new load.3000544697M1 bus1=RML1051979349.2.3.0,Phases=2,kv=0.22,kW=1.90516,pf=0.92,Vminpu=0.92,Vmaxpu=1.5,model=8,zipv=[0.5,0,0.5,1,0,0,0],daily=RES3_10,status=variable
new load.3000544707M1 bus1=RML1051982373.1.2.3.0,Phases=3,kv=0.22,kW=27.57422,pf=0.92,Vminpu=0.92,Vmaxpu=1.5,model=8,zipv=[0.5,0,0.5,1,0,0,0],daily=COM4_15,status=variable
new load.3000544725M1 bus1=RML1051978740.1.2.3.0,Phases=3,kv=0.22,kW=23.12562,pf=0.92,Vminpu=0.92,Vmaxpu=1.5,model=8,zipv=[0.5,0,0.5,1,0,0,0],daily=COM4_15,status=variable
new load.3000544740M1 bus1=RML1051981323.1.2.3.0,Phases=3,kv=0.22,kW=1.50908,pf=0.92,Vminpu=0.92,Vmaxpu=1.5,model=8,zipv=[0.5,0,0.5,1,0,0,0],daily=RES5_10,status=variable
new load.3000544748M1 bus1=RML1051981316.1.2.3.0,Phases=3,kv=0.22,kW=2.91232,pf=0.92,Vminpu=0.92,Vmaxpu=1.5,model=8,zipv=[0.5,0,0.5,1,0,0,0],daily=RES4_11,status=variable
new load.3000544768M1 bus1=RML1051979811.1.0,Phases=1,kv=0.127,kW=1.37384,pf=0.92,Vminpu=0.92,Vmaxpu=1.5,model=8,zipv=[0.5,0,0.5,1,0,0,0],daily=RES3_10,status=variable
new load.3000544785M1 bus1=RML1052028160.1.2.3.0,Phases=3,kv=0.22,kW=0.51964,pf=0.92,Vminpu=0.92,Vmaxpu=1.5,model=8,zipv=[0.5,0,0.5,1,0,0,0],daily=RES2_9,status=variable
new load.3000544809M1 bus1=RML1052028125.1.2.3.0,Phases=3,kv=0.22,kW=0.66602,pf=0.92,Vminpu=0.92,Vmaxpu=1.5,model=8,zipv=[0.5,0,0.5,1,0,0,0],daily=RES2_9,status=variable
new load.3000544817M1 bus1=RML1052028125.1.2.3.0,Phases=3,kv=0.22,kW=1.03872,pf=0.92,Vminpu=0.92,Vmaxpu=1.5,model=8,zipv=[0.5,0,0.5,1,0,0,0],daily=RES1_8,status=variable
new load.3000544833M1 bus1=RML1052027180.1.2.3.0,Phases=3,kv=0.22,kW=1.0832,pf=0.92,Vminpu=0.92,Vmaxpu=1.5,model=8,zipv=[0.5,0,0.5,1,0,0,0],daily=RES2_9,status=variable
new load.3000544841M1 bus1=RML1052027180.1.2.3.0,Phases=3,kv=0.22,kW=1.28082,pf=0.92,Vminpu=0.92,Vmaxpu=1.5,model=8,zipv=[0.5,0,0.5,1,0,0,0],daily=RES2_9,status=variable
new load.3000544849M1 bus1=RML1052027187.1.2.3.0,Phases=3,kv=0.22,kW=1.99624,pf=0.92,Vminpu=0.92,Vmaxpu=1.5,model=8,zipv=[0.5,0,0.5,1,0,0,0],daily=RES3_10,status=variable
new load.3000544857M1 bus1=RML1052027194.1.2.3.0,Phases=3,kv=0.22,kW=0.51964,pf=0.92,Vminpu=0.92,Vmaxpu=1.5,model=8,zipv=[0.5,0,0.5,1,0,0,0],daily=RES2_9,status=variable
new load.3000544636M1 bus1=RML1052026249.1.2.3.0,Phases=3,kv=0.22,kW=0.32464,pf=0.92,Vminpu=0.92,Vmaxpu=1.5,model=8,zipv=[0.5,0,0.5,1,0,0,0],daily=COM1_13,status=variable
new load.3000544645M1 bus1=RML1052026116.1.2.0,Phases=2,kv=0.22,kW=0.90724,pf=0.92,Vminpu=0.92,Vmaxpu=1.5,model=8,zipv=[0.5,0,0.5,1,0,0,0],daily=RES1_8,status=variable
new load.3000544655M1 bus1=RML1051983297.1.0,Phases=1,kv=0.127,kW=2.09492,pf=0.92,Vminpu=0.92,Vmaxpu=1.5,model=8,zipv=[0.5,0,0.5,1,0,0,0],daily=RES3_10,status=variable
new load.3000544667M1 bus1=RML1051983696.1.2.3.0,Phases=3,kv=0.22,kW=0.30242,pf=0.92,Vminpu=0.92,Vmaxpu=1.5,model=8,zipv=[0.5,0,0.5,1,0,0,0],daily=RES1_8,status=variable
new load.3000544675M1 bus1=RML1051983696.1.2.3.0,Phases=3,kv=0.22,kW=1.25886,pf=0.92,Vminpu=0.92,Vmaxpu=1.5,model=8,zipv=[0.5,0,0.5,1,0,0,0],daily=RES2_9,status=variable
new load.3000544686M1 bus1=RML1051979489.1.2.0,Phases=2,kv=0.22,kW=2.01902,pf=0.92,Vminpu=0.92,Vmaxpu=1.5,model=8,zipv=[0.5,0,0.5,1,0,0,0],daily=RES3_10,status=variable
new load.3000544695M1 bus1=RML1051979370.1.2.0,Phases=2,kv=0.22,kW=0.9046,pf=0.92,Vminpu=0.92,Vmaxpu=1.5,model=8,zipv=[0.5,0,0.5,1,0,0,0],daily=COM1_13,status=variable
new load.3000544713M1 bus1=RML1051982317.1.2.3.0,Phases=3,kv=0.22,kW=0.05836,pf=0.92,Vminpu=0.92,Vmaxpu=1.5,model=8,zipv=[0.5,0,0.5,1,0,0,0],daily=COM1_13,status=variable
new load.3000544721M1 bus1=RML1051978726.1.2.0,Phases=2,kv=0.22,kW=3.571,pf=0.92,Vminpu=0.92,Vmaxpu=1.5,model=8,zipv=[0.5,0,0.5,1,0,0,0],daily=COM3_12,status=variable
new load.3000544737M1 bus1=RML1051981344.1.2.3.0,Phases=3,kv=0.22,kW=0.22352,pf=0.92,Vminpu=0.92,Vmaxpu=1.5,model=8,zipv=[0.5,0,0.5,1,0,0,0],daily=RES1_8,status=variable
new load.3000544746M1 bus1=RML1056478592.1.2.3.0,Phases=3,kv=0.22,kW=0.15684,pf=0.92,Vminpu=0.92,Vmaxpu=1.5,model=8,zipv=[0.5,0,0.5,1,0,0,0],daily=COM1_13,status=variable
new load.3000544755M1 bus1=RML1051979909.1.2.3.0,Phases=3,kv=0.22,kW=0.11672,pf=0.92,Vminpu=0.92,Vmaxpu=1.5,model=8,zipv=[0.5,0,0.5,1,0,0,0],daily=COM1_13,status=variable
new load.3000544766M1 bus1=RML1051979867.1.2.3.0,Phases=3,kv=0.22,kW=2.2177,pf=0.92,Vminpu=0.92,Vmaxpu=1.5,model=8,zipv=[0.5,0,0.5,1,0,0,0],daily=RES4_11,status=variable
new load.3000544775M1 bus1=RML1051984802.1.0,Phases=1,kv=0.127,kW=1.13096,pf=0.92,Vminpu=0.92,Vmaxpu=1.5,model=8,zipv=[0.5,0,0.5,1,0,0,0],daily=RES3_10,status=variable
new load.3000544815M1 bus1=RML1052028125.1.2.3.0,Phases=3,kv=0.22,kW=0.9295,pf=0.92,Vminpu=0.92,Vmaxpu=1.5,model=8,zipv=[0.5,0,0.5,1,0,0,0],daily=RES2_9,status=variable
new load.3000544823M1 bus1=RML1052028104.1.2.3.0,Phases=3,kv=0.22,kW=0.95146,pf=0.92,Vminpu=0.92,Vmaxpu=1.5,model=8,zipv=[0.5,0,0.5,1,0,0,0],daily=RES2_9,status=variable
new load.3000544831M1 bus1=RML1052027180.1.2.3.0,Phases=3,kv=0.22,kW=1.42698,pf=0.92,Vminpu=0.92,Vmaxpu=1.5,model=8,zipv=[0.5,0,0.5,1,0,0,0],daily=RES3_10,status=variable
new load.3000544839M1 bus1=RML1052027180.1.2.3.0,Phases=3,kv=0.22,kW=2.28468,pf=0.92,Vminpu=0.92,Vmaxpu=1.5,model=8,zipv=[0.5,0,0.5,1,0,0,0],daily=RES3_10,status=variable
new load.3000544847M1 bus1=RML1052027187.1.2.3.0,Phases=3,kv=0.22,kW=0.73922,pf=0.92,Vminpu=0.92,Vmaxpu=1.5,model=8,zipv=[0.5,0,0.5,1,0,0,0],daily=RES2_9,status=variable
new load.3000544855M1 bus1=RML1052027187.1.2.3.0,Phases=3,kv=0.22,kW=1.09784,pf=0.92,Vminpu=0.92,Vmaxpu=1.5,model=8,zipv=[0.5,0,0.5,1,0,0,0],daily=RES2_9,status=variable
new load.3000544863M1 bus1=RML1052027194.1.2.3.0,Phases=3,kv=0.22,kW=1.02558,pf=0.92,Vminpu=0.92,Vmaxpu=1.5,model=8,zipv=[0.5,0,0.5,1,0,0,0],daily=RES1_8,status=variable
new load.3000544871M1 bus1=RML1052027173.1.2.3.0,Phases=3,kv=0.22,kW=0.72458,pf=0.92,Vminpu=0.92,Vmaxpu=1.5,model=8,zipv=[0.5,0,0.5,1,0,0,0],daily=RES2_9,status=variable
new load.3000544630M1 bus1=RML1052028055.1.2.3.0,Phases=3,kv=0.22,kW=1.4877,pf=0.92,Vminpu=0.92,Vmaxpu=1.5,model=8,zipv=[0.5,0,0.5,1,0,0,0],daily=RES3_10,status=variable
new load.3000544640M1 bus1=RML1052026221.1.3.0,Phases=2,kv=0.22,kW=2.53102,pf=0.92,Vminpu=0.92,Vmaxpu=1.5,model=8,zipv=[0.5,0,0.5,1,0,0,0],daily=RES5_10,status=variable
new load.3000544650M1 bus1=RML1051983346.1.2.3.0,Phases=3,kv=0.22,kW=0.7319,pf=0.92,Vminpu=0.92,Vmaxpu=1.5,model=8,zipv=[0.5,0,0.5,1,0,0,0],daily=RES2_9,status=variable
new load.3000544659M1 bus1=RML1051983283.1.2.3.0,Phases=3,kv=0.22,kW=45.61344,pf=0.92,Vminpu=0.92,Vmaxpu=1.5,model=8,zipv=[0.5,0,0.5,1,0,0,0],daily=COM4_15,status=variable
new load.3000544670M1 bus1=RML1051983696.1.2.3.0,Phases=3,kv=0.22,kW=0.95878,pf=0.92,Vminpu=0.92,Vmaxpu=1.5,model=8,zipv=[0.5,0,0.5,1,0,0,0],daily=RES2_9,status=variable
new load.3000544678M1 bus1=RML1051979517.1.0,Phases=1,kv=0.127,kW=1.83684,pf=0.92,Vminpu=0.92,Vmaxpu=1.5,model=8,zipv=[0.5,0,0.5,1,0,0,0],daily=RES3_10,status=variable
...
